   104  
Molecule frame=     19 
    C     1.642   0.648  -0.285   
    C     1.111  -0.664  -0.777   
    C    -0.219  -1.158  -0.282   
    C    -0.927  -0.358   0.749   
    C     0.870   1.503   0.680   
    C    -0.384   0.920   1.213   
    C    -2.293  -0.437   1.257   
    N    -2.535   0.608   2.210   
    H     2.577   1.029  -0.672   
    H     1.645  -1.218  -1.538   
    H    -0.678  -2.054  -0.694   
    H     1.188   2.507   0.958   
    C    -1.459   1.539   1.993   
    N    -1.654   2.930   2.102   
    C    -6.756  -1.311  -2.659   
    C    -7.706  -0.164  -2.497   
    C    -7.576   0.728  -1.296   
    C    -6.605   0.359  -0.221   
    C    -5.688  -1.584  -1.642   
    C    -5.701  -0.780  -0.389   
    C    -6.083   1.130   0.922   
    N    -5.065   0.381   1.608   
    H    -6.787  -1.927  -3.561   
    H    -8.454   0.066  -3.266   
    H    -8.135   1.653  -1.221   
    H    -4.914  -2.323  -1.826   
    B    -3.994   1.089   2.489   
    C    -4.682  -0.638   0.663   
    N    -3.338  -1.059   0.512   
    C    -4.659   6.901   0.158   
    C    -3.232   7.059   0.560   
    C    -2.549   5.942   1.314   
    C    -3.350   4.758   1.738   
    C    -5.434   5.662   0.514   
    C    -4.754   4.634   1.339   
    C    -2.964   3.466   2.315   
    N    -4.141   2.640   2.512   
    H    -5.141   7.674  -0.415   
    H    -2.669   7.924   0.241   
    H    -1.481   5.982   1.553   
    H    -6.451   5.491   0.146   
    C    -5.156   3.275   1.690   
    N    -6.162   2.554   1.004   
   Cl    -4.369   0.568   4.237   
    C    -0.210   6.264  -5.501   
    C    -0.596   6.386  -4.071   
    C     0.146   5.332  -3.328   
    C     0.997   4.593  -4.301   
    C     0.764   5.160  -5.646   
    C     0.736   4.265  -6.862   
    C     0.931   2.807  -6.717   
    C     1.168   2.205  -5.352   
    C     1.189   3.094  -4.153   
    C     0.534   2.359  -3.052   
    C    -0.336   3.113  -2.074   
    C    -0.524   4.585  -2.196   
    C    -1.934   4.905  -1.850   
    C    -2.686   5.989  -2.600   
    C    -2.028   6.719  -3.707   
    C    -3.038   6.949  -4.787   
    C    -4.321   6.359  -4.339   
    C    -4.105   5.771  -2.983   
    C    -4.784   4.470  -2.617   
    C    -4.046   3.420  -1.872   
    C    -2.612   3.639  -1.481   
    C    -1.624   2.535  -1.619   
    C    -2.061   1.190  -2.141   
    C    -1.212   0.451  -3.116   
    C     0.095   1.035  -3.571   
    C     0.490   0.936  -5.001   
    C    -0.403   0.246  -6.015   
    C    -0.623   0.846  -7.360   
    C     0.050   2.140  -7.713   
    C    -0.686   3.183  -8.484   
    C    -2.128   2.961  -8.895   
    C    -2.807   1.678  -8.556   
    C    -2.041   0.621  -7.768   
    C    -2.698  -0.091  -6.642   
    C    -1.693  -0.330  -5.567   
    C    -2.093  -0.236  -4.099   
    C    -3.484   0.107  -3.739   
    C    -3.471   0.976  -2.531   
    C    -4.469   2.096  -2.395   
    C    -5.453   2.329  -3.473   
    C    -5.671   3.790  -3.595   
    C    -5.881   4.390  -4.970   
    C    -5.236   5.669  -5.337   
    C    -4.828   5.555  -6.768   
    C    -5.263   4.246  -7.313   
    C    -5.903   3.528  -6.184   
    C    -5.686   2.051  -6.044   
    C    -5.471   1.453  -4.705   
    C    -4.494   0.352  -4.838   
    C    -4.109   0.263  -6.267   
    C    -4.863   1.295  -7.024   
    C    -4.207   2.016  -8.172   
    C    -4.404   3.492  -8.324   
    C    -3.115   4.078  -8.770   
    C    -2.672   5.411  -8.190   
    C    -3.524   6.150  -7.219   
    C    -2.633   6.822  -6.232   
    C    -1.233   6.493  -6.581   
    C    -1.262   5.616  -7.787   
    C    -0.278   4.488  -7.923   
