   104  
Molecule frame=  19000 
    C     4.575  -3.096  -2.163   
    C     4.055  -2.668  -3.397   
    C     2.707  -2.867  -3.724   
    C     1.888  -3.501  -2.793   
    C     3.763  -3.734  -1.216   
    C     2.421  -3.938  -1.526   
    C     0.456  -3.774  -2.785   
    N     0.238  -4.576  -1.650   
    H     5.631  -2.926  -1.935   
    H     4.712  -2.170  -4.116   
    H     2.296  -2.532  -4.680   
    H     4.161  -4.063  -0.252   
    C     1.314  -4.474  -0.745   
    N     1.194  -4.583   0.607   
    C    -4.269  -0.526  -4.083   
    C    -5.112  -0.602  -2.961   
    C    -4.862  -1.512  -1.926   
    C    -3.752  -2.346  -2.034   
    C    -3.149  -1.359  -4.206   
    C    -2.888  -2.270  -3.186   
    C    -3.171  -3.315  -1.112   
    N    -2.155  -3.959  -1.846   
    H    -4.488   0.197  -4.874   
    H    -5.979   0.062  -2.892   
    H    -5.511  -1.571  -1.047   
    H    -2.487  -1.300  -5.074   
    B    -1.175  -4.927  -1.176   
    C    -1.783  -3.196  -2.970   
    N    -0.533  -3.180  -3.510   
    C    -1.921  -3.158   4.629   
    C    -0.565  -3.513   4.741   
    C     0.144  -4.020   3.646   
    C    -0.528  -4.168   2.435   
    C    -2.610  -3.301   3.418   
    C    -1.918  -3.806   2.320   
    C    -0.070  -4.582   1.114   
    N    -1.239  -4.695   0.337   
    H    -2.449  -2.762   5.502   
    H    -0.054  -3.389   5.700   
    H     1.200  -4.293   3.726   
    H    -3.664  -3.022   3.324   
    C    -2.311  -4.000   0.930   
    N    -3.327  -3.414   0.236   
   Cl    -1.599  -6.702  -1.598   
    C     2.661   2.539   3.462   
    C     2.279   1.133   3.428   
    C     3.001   0.497   2.333   
    C     3.829   1.509   1.690   
    C     3.620   2.772   2.388   
    C     3.588   3.967   1.673   
    C     3.763   3.955   0.226   
    C     3.963   2.748  -0.442   
    C     3.997   1.498   0.307   
    C     3.345   0.473  -0.499   
    C     2.552  -0.492   0.117   
    C     2.377  -0.483   1.564   
    C     1.001  -0.868   1.854   
    C     0.311  -0.262   2.901   
    C     0.965   0.762   3.706   
    C    -0.027   1.780   4.031   
    C    -1.294   1.384   3.427   
    C    -1.085   0.122   2.729   
    C    -1.729  -0.117   1.517   
    C    -1.005  -0.748   0.422   
    C     0.327  -1.115   0.587   
    C     1.284  -0.882  -0.486   
    C     0.867  -0.294  -1.677   
    C     1.697   0.714  -2.323   
    C     2.907   1.090  -1.745   
    C     3.289   2.497  -1.710   
    C     2.445   3.462  -2.254   
    C     2.235   4.724  -1.555   
    C     2.880   4.965  -0.344   
    C     2.158   5.602   0.752   
    C     0.825   5.969   0.587   
    C     0.150   5.717  -0.681   
    C     0.840   5.109  -1.727   
    C     0.186   4.084  -2.533   
    C     1.178   3.067  -2.858   
    C     0.812   1.724  -2.893   
    C    -0.563   1.336  -2.602   
    C    -0.527   0.090  -1.850   
    C    -1.441  -0.131  -0.823   
    C    -2.437   0.882  -0.499   
    C    -2.614   0.892   0.948   
    C    -2.813   2.099   1.615   
    C    -2.138   2.350   2.883   
    C    -1.754   3.756   2.917   
    C    -2.192   4.373   1.671   
    C    -2.846   3.349   0.866   
    C    -2.679   3.338  -0.518   
    C    -2.470   2.076  -1.217   
    C    -1.512   2.308  -2.291   
    C    -1.128   3.714  -2.255   
    C    -1.849   4.350  -1.160   
    C    -1.224   5.329  -0.390   
    C    -1.400   5.341   1.057   
    C    -0.133   5.736   1.661   
    C     0.285   5.147   2.852   
    C    -0.544   4.134   3.494   
    C     0.339   3.124   4.064   
    C     1.714   3.512   3.773   
    C     1.680   4.762   3.024   
    C     2.596   4.984   1.998   
