224
Frame 1
C 4.4482 1.2478 -4.3257
C 3.8835 -0.0028 -4.0442
C 3.0929 -0.2349 -2.9374
C 2.9093 0.7957 -2.1033
C 4.3359 2.2694 -3.3883
C 3.4353 2.0946 -2.3048
C 2.0320 0.9690 -0.9298
N 2.4940 2.1862 -0.3008
H 5.0745 1.4689 -5.2492
H 3.8329 -0.7218 -4.7675
H 2.6000 -1.0975 -2.7006
H 5.0937 2.9998 -3.1787
C 3.1866 2.9811 -1.2285
N 3.2486 4.3269 -1.1761
C -3.7936 0.1382 0.0465
C -4.1586 1.3491 0.6957
C -3.2662 2.2173 1.1851
C -1.9024 1.9997 0.9860
C -2.4267 -0.0829 -0.1664
C -1.4695 0.8952 0.2108
C -0.7426 2.9519 1.2594
N 0.3958 2.1835 0.8538
H -4.4661 -0.6364 -0.2554
H -5.2072 1.4263 0.7348
H -3.6209 3.1793 1.7290
H -2.0631 -0.8849 -0.7861
B 1.7763 2.7760 0.8824
C 0.0064 1.1090 0.1452
N 0.8478 0.3371 -0.5620
C 0.2463 8.5625 0.2799
C 1.3447 8.6405 -0.5264
C 2.2116 7.5034 -0.8361
C 1.7743 6.2969 -0.2721
C -0.2023 7.3679 0.7252
C 0.5834 6.2920 0.5456
C 2.3037 4.9518 -0.3117
N 1.6576 4.2478 0.6987
H -0.2445 9.5551 0.5726
H 1.6695 9.6526 -1.0174
H 2.9572 7.6202 -1.7524
H -1.0854 7.2402 1.2811
C 0.3728 4.8963 1.0053
N -0.7883 4.2792 1.4254
Cl 2.5908 2.1561 2.4949
C -4.0092 6.9726 -6.4980
C -2.8762 7.7646 -6.0851
C -1.8074 7.5901 -7.0660
C -2.2764 6.6893 -8.0746
C -3.6413 6.2878 -7.7275
C -4.0511 5.0295 -8.0167
C -3.1548 4.0563 -8.6647
C -1.8678 4.4146 -8.9178
C -1.4056 5.7745 -8.6468
C -0.0390 5.7351 -8.2753
C 0.4205 6.5607 -7.2571
C -0.4591 7.5356 -6.6504
C -0.1361 7.6287 -5.2511
C -1.1396 7.7768 -4.2866
C -2.5331 7.7979 -4.7404
C -3.3245 7.1203 -3.7428
C -2.4627 6.6744 -2.6699
C -1.0965 7.0167 -3.0163
C -0.0510 6.1473 -2.7574
C 0.9872 6.0012 -3.7641
C 0.9719 6.7151 -4.9619
C 1.3203 6.0582 -6.2404
C 1.7017 4.7079 -6.2250
C 1.2253 3.8345 -7.2681
C 0.3874 4.3467 -8.2605
C -0.7224 3.5379 -8.7242
C -0.9774 2.3292 -8.0717
C -2.3003 1.9727 -7.7165
C -3.3876 2.7727 -8.0279
C -4.4234 2.9258 -7.0130
C -4.3624 2.2363 -5.8109
C -3.2803 1.2875 -5.5675
C -2.2387 1.1646 -6.4953
C -0.8352 1.0721 -6.0783
C -0.0305 1.7955 -7.0852
C 1.0445 2.5235 -6.6489
C 1.3336 2.6363 -5.2254
C 1.7564 4.0027 -4.9348
C 1.4666 4.6113 -3.7518
C 0.5908 3.9213 -2.8183
C -0.2814 4.8972 -2.1167
C -1.5495 4.5067 -1.8163
C -2.6325 5.4149 -2.1123
C -3.7826 4.6255 -2.5300
C -3.3415 3.2028 -2.5167
C -1.9695 3.1389 -2.0918
C -1.1409 2.1993 -2.6691
C 0.2039 2.6239 -3.0368
C 0.5828 1.9421 -4.3009
C -0.6096 1.2789 -4.7461
C -1.6099 1.3457 -3.7276
C -2.9477 1.4099 -4.1338
C -3.8309 2.3822 -3.5260
C -4.6996 2.8875 -4.5817
C -5.1313 4.2120 -4.5446
C -4.6583 5.1130 -3.4744
C -4.3936 6.3944 -4.1366
C -4.7562 6.3640 -5.5084
C -5.1454 4.9469 -5.7926
C -4.8592 4.3348 -7.0099
C -7.6786 5.0122 0.0837
C -8.9435 5.6777 -0.1692
C -8.7451 6.7495 -1.1124
C -7.3506 6.7612 -1.4876
C -6.6923 5.7048 -0.7415
C -5.3861 5.8564 -0.3182
C -4.7337 7.1459 -0.5342
C -5.3705 8.1519 -1.2151
C -6.7328 7.9644 -1.6900
C -7.4259 9.2288 -1.6466
C -8.7665 9.2145 -1.2357
C -9.3919 7.9432 -0.9401
C -10.3594 8.1544 0.1304
C -10.5343 7.1138 1.0579
C -9.7732 5.9265 0.9421
C -9.4339 5.3698 2.2381
C -9.9374 6.3564 3.2017
C -10.5620 7.4536 2.4655
C -10.4310 8.7626 2.8860
C -10.2752 9.8445 1.9378
C -10.1630 9.5229 0.5997
C -9.1939 10.1803 -0.2416
C -8.3490 11.1258 0.2486
C -6.9391 11.1043 -0.1284
C -6.4914 10.1821 -1.0529
C -5.1989 9.5304 -0.8312
C -4.4578 9.8357 0.2739
C -3.7890 8.8082 1.0103
C -3.8962 7.4856 0.6131
C -4.0416 6.4139 1.5888
C -4.1539 6.7564 2.9189
C -4.0692 8.1435 3.3688
C -3.8274 9.1267 2.4103
C -4.6168 10.3757 2.5388
C -4.9257 10.8741 1.2233
C -6.1439 11.4856 1.0606
C -7.0492 11.6196 2.1566
C -8.3860 11.4099 1.6880
C -9.3192 10.8081 2.5112
C -8.9835 10.3488 3.8371
C -9.6590 9.0723 4.1031
C -9.0408 8.0465 4.7695
C -9.1587 6.6883 4.2858
C -7.8862 6.0665 4.5429
C -6.9429 7.0213 5.1081
C -7.6910 8.2947 5.2678
C -7.0706 9.4894 5.0338
C -7.7107 10.5654 4.3195
C -6.7504 11.2273 3.4535
C -5.4673 10.5523 3.6525
C -5.6685 9.5258 4.6343
C -5.0041 8.3123 4.4696
C -5.6338 7.0535 4.7296
C -5.1287 6.0726 3.7652
C -5.9872 5.1408 3.2547
C -7.4184 5.1394 3.6489
C -8.2002 4.7757 2.4671
C -7.2817 4.5558 1.3453
C -5.9428 4.7867 1.8393
C -5.0297 5.4741 1.0161
C 1.7470 -6.8377 -3.6129
C 0.6489 -7.6352 -3.0640
C 0.0175 -8.4332 -4.1277
C 0.7048 -8.0702 -5.3483
C 1.7236 -7.0427 -5.0491
C 2.0047 -6.0278 -5.9228
C 1.2162 -5.9030 -7.1192
C 0.2389 -6.8179 -7.4187
C -0.0334 -7.9406 -6.5383
C -1.4611 -8.1462 -6.5036
C -2.0841 -8.5372 -5.3125
C -1.3080 -8.6966 -4.1096
C -2.1793 -8.1743 -3.0128
C -1.5776 -7.4761 -1.9775
C -0.1237 -7.2024 -2.0042
C 0.1003 -5.8526 -1.4861
C -1.1922 -5.3285 -1.0869
C -2.2166 -6.2940 -1.4212
C -3.4175 -5.8637 -1.9579
C -4.0295 -6.6163 -3.0550
C -3.3861 -7.6930 -3.5411
C -3.3802 -7.9822 -4.9849
C -3.9734 -7.0551 -5.8472
C -3.3239 -6.6823 -7.0940
C -2.0989 -7.2006 -7.3725
C -1.0477 -6.3798 -7.9461
C -1.2343 -5.0668 -8.2632
C -0.1847 -4.0959 -7.9207
C 0.9748 -4.4879 -7.3198
C 1.6104 -3.7539 -6.2468
C 0.9692 -2.6183 -5.7853
C -0.3170 -2.2716 -6.2688
C -0.8539 -2.9391 -7.3952
C -2.3055 -3.1671 -7.3217
C -2.5303 -4.4899 -7.9037
C -3.5411 -5.2704 -7.3591
C -4.3611 -4.7680 -6.2476
C -4.6202 -5.9087 -5.3303
C -4.6140 -5.6570 -3.9650
C -4.4355 -4.3128 -3.4642
C -3.6904 -4.4727 -2.1838
C -2.7216 -3.5402 -1.8665
C -1.4225 -3.9819 -1.3458
C -0.3454 -3.1754 -1.9244
C -1.0041 -2.2183 -2.8071
C -2.4168 -2.4668 -2.7870
C -3.1504 -2.2922 -4.0034
C -4.1604 -3.2553 -4.3194
C -4.1504 -3.5131 -5.7430
C -3.0655 -2.6873 -6.2716
C -2.4686 -1.9393 -5.1886
C -1.1175 -1.7096 -5.1978
C -0.3712 -1.8255 -3.9489
C 0.9381 -2.3599 -4.3291
C 1.5601 -3.2728 -3.4863
C 0.8981 -3.6999 -2.2770
C 1.1045 -5.0771 -2.0292
C 1.9842 -5.5721 -3.0869
C 2.1973 -4.4783 -4.0123
C 2.2540 -4.6875 -5.3825
