284
Frame 1
C 5.0893 4.9474 -1.7420
C 4.7907 3.5995 -1.2723
C 3.7138 3.4403 -0.4732
C 2.9209 4.4614 -0.1660
C 4.3180 6.0999 -1.3312
C 3.2138 5.7776 -0.6069
C 1.7509 4.5942 0.6921
N 1.4753 5.9496 0.8871
H 6.0184 5.1298 -2.2869
H 5.4553 2.8424 -1.7364
H 3.6744 2.4055 -0.1702
H 4.3371 7.1662 -1.5962
C 2.0917 6.6783 -0.1511
N 1.5460 7.7804 -0.6797
C -2.9780 1.1718 1.1389
C -4.1108 1.8955 1.0362
C -3.9473 3.4002 0.9488
C -2.7390 3.9067 1.1631
C -1.6848 1.7460 1.2071
C -1.5582 3.0633 1.2496
C -2.2858 5.3003 1.2812
N -0.8884 5.1633 1.6464
H -2.9502 0.0413 1.1614
H -4.9229 1.1918 0.8649
H -4.9149 3.9054 0.5395
H -0.9679 0.9289 0.8757
B 0.2061 6.3399 1.5927
C -0.3540 3.9103 1.3287
N 0.8746 3.4913 0.9332
C -2.8125 9.9490 -2.3372
C -1.4435 10.1882 -2.8243
C -0.4667 9.5881 -2.1402
C -0.6530 8.7194 -1.0743
C -3.0282 9.0652 -1.2707
C -1.9901 8.4236 -0.7622
C 0.1912 7.9000 -0.4267
N -0.5695 7.2262 0.5361
H -3.6842 10.3816 -2.8403
H -1.3053 11.1216 -3.3470
H 0.5484 9.9470 -2.3862
H -4.0259 8.8543 -0.8179
C -1.8647 7.3427 0.2363
N -2.8126 6.3268 0.6525
Cl 0.6202 7.0259 3.2130
C -3.1839 3.7208 -8.6181
C -3.4747 5.0240 -8.0155
C -2.1872 5.7477 -7.8762
C -1.1591 4.8723 -8.3849
C -1.7735 3.6264 -8.8486
C -1.0516 2.4557 -8.6757
C 0.2655 2.4457 -8.0429
C 0.8017 3.6256 -7.6345
C 0.0624 4.8593 -7.7917
C 0.3436 5.7144 -6.6486
C -0.5934 6.5522 -6.1367
C -1.9092 6.5583 -6.7892
C -2.9425 6.7303 -5.7500
C -4.1028 6.0144 -5.8383
C -4.3418 5.0854 -6.9796
C -5.1516 3.9604 -6.4956
C -5.2275 4.0606 -5.0461
C -4.6216 5.3412 -4.6602
C -3.9645 5.3860 -3.4427
C -2.7042 6.0906 -3.3774
C -2.2246 6.7761 -4.4507
C -0.7887 6.6529 -4.6753
C 0.0009 5.9486 -3.8600
C 1.0956 5.1268 -4.3421
C 1.2091 4.9743 -5.7280
C 1.4962 3.6865 -6.3452
C 1.6840 2.5699 -5.5273
C 1.0431 1.3187 -5.9670
C 0.4137 1.2569 -7.2021
C -0.8620 0.5527 -7.2811
C -1.4454 -0.0890 -6.1275
C -0.7270 -0.0367 -4.8627
C 0.5177 0.6320 -4.8123
C 0.7203 1.5210 -3.6728
C 1.4136 2.7130 -4.1207
C 1.2041 3.9499 -3.5414
C 0.2151 4.0973 -2.4525
C -0.5125 5.3395 -2.6336
C -1.8653 5.4000 -2.3819
C -2.5408 4.2266 -1.9478
C -3.8352 4.1630 -2.6184
C -4.4909 3.0183 -2.9325
C -5.1911 2.9466 -4.2214
C -4.9272 1.6284 -4.7969
C -4.0238 0.9310 -3.8927
C -3.8088 1.7445 -2.7396
C -2.5133 1.7875 -2.1882
C -1.9131 3.0230 -1.8000
C -0.4691 2.9565 -2.0528
C -0.2252 1.6576 -2.6656
C -1.4979 0.9148 -2.7232
C -1.6911 0.1169 -3.8252
C -3.0182 0.1104 -4.4208
C -2.8284 -0.0096 -5.8356
C -3.6744 0.7250 -6.6633
C -4.7562 1.5458 -6.1735
C -4.8250 2.7147 -7.0324
C -3.8591 2.6243 -8.1171
C -3.1403 1.4070 -7.8316
C -1.7722 1.2971 -8.1304
C -11.3713 6.5893 1.0681
C -12.4007 7.3058 0.3646
C -13.1234 6.3767 -0.4797
C -12.5526 5.0614 -0.2385
C -11.4686 5.1963 0.7442
C -10.3683 4.3921 0.6283
C -10.2104 3.4858 -0.4741
C -11.2407 3.3896 -1.4263
C -12.4439 4.2035 -1.2552
C -12.8617 4.5442 -2.6029
C -13.4371 5.8060 -2.8550
C -13.5417 6.7230 -1.7589
C -13.2899 8.0485 -2.2588
C -12.6198 8.9770 -1.4416
C -12.1788 8.5860 -0.1262
C -10.8634 9.1924 0.1715
C -10.5190 9.9031 -1.0462
C -11.6124 9.8057 -2.0505
C -11.2765 9.7308 -3.3880
C -11.9923 8.7818 -4.2556
C -12.9416 7.9561 -3.6739
C -13.1209 6.5468 -4.0428
C -12.1691 6.0336 -4.9232
C -11.6058 4.7123 -4.6946
C -11.9700 3.9809 -3.5708
C -10.9445 3.3095 -2.8222
C -9.6223 3.3368 -3.2377
C -8.5276 3.4522 -2.2796
C -8.8741 3.5371 -0.9346
C -8.1359 4.5071 -0.1157
C -7.1702 5.2978 -0.6799
C -6.8030 5.1813 -2.0788
C -7.5180 4.3273 -2.8545
C -7.9814 4.6685 -4.1940
C -9.2402 4.0532 -4.4219
C -10.2343 4.7185 -5.1660
C -9.9432 6.0903 -5.6559
C -11.1667 6.8729 -5.5459
C -11.0689 8.2190 -5.1968
C -9.7912 8.8738 -5.0051
C -9.8944 9.7441 -3.8316
C -8.9219 9.8817 -2.8991
C -9.1868 10.0422 -1.4673
C -8.1778 9.2950 -0.7361
C -7.2846 8.6839 -1.6918
C -7.7320 9.0554 -3.0391
C -7.6382 8.1925 -4.1003
C -8.6219 8.0850 -5.1374
C -8.7021 6.6487 -5.4790
C -7.7448 5.9443 -4.6669
C -7.0288 6.8764 -3.8187
C -6.5756 6.5203 -2.5622
C -6.6768 7.4679 -1.4631
C -7.0373 6.7019 -0.2789
C -7.9669 7.2473 0.5524
C -8.5082 8.5597 0.3899
C -9.9000 8.5284 0.8651
C -10.1302 7.1715 1.3524
C -8.9600 6.3647 1.1766
C -9.0605 5.0230 0.8807
C 5.0922 7.5506 -9.5550
C 4.1471 8.6180 -9.9040
C 4.9601 9.8232 -10.1073
C 6.3446 9.4857 -9.9698
C 6.4430 8.0692 -9.6190
C 7.3761 7.6325 -8.7263
C 8.2702 8.5262 -8.1175
C 8.2940 9.8553 -8.4734
C 7.2643 10.3453 -9.3893
C 6.8338 11.6337 -8.9438
C 5.4972 11.9735 -9.0855
C 4.5326 11.0314 -9.6805
C 3.2549 11.1437 -8.9229
C 2.4714 10.0076 -8.7809
C 2.9172 8.7456 -9.2676
C 2.6232 7.7822 -8.2038
C 1.9447 8.4545 -7.1089
C 1.8156 9.8654 -7.4874
C 1.9999 10.8180 -6.4834
C 2.7652 12.0396 -6.7320
C 3.3980 12.2410 -7.9395
C 4.8272 12.6569 -7.9946
C 5.5021 12.9574 -6.8106
C 6.9089 12.6840 -6.7119
C 7.5685 11.9794 -7.7467
C 8.4085 10.8660 -7.4215
C 8.6239 10.5323 -6.1072
C 8.6438 9.1036 -5.7285
C 8.4939 8.1337 -6.7248
C 7.7418 6.9180 -6.4799
C 7.1313 6.7233 -5.2634
C 7.2735 7.7373 -4.2313
C 8.0221 8.8997 -4.4505
C 7.5962 10.1876 -4.0309
C 7.9571 11.2155 -5.0329
C 7.0963 12.2437 -5.3519
C 5.8340 12.3489 -4.5944
C 4.8404 12.8108 -5.5769
C 3.5259 12.3357 -5.5127
C 3.2054 11.3492 -4.4702
C 2.2848 10.4330 -5.1043
C 2.3132 9.0858 -4.7975
C 2.1388 8.1049 -5.8235
C 3.0666 7.0515 -5.5019
C 3.7383 7.3116 -4.2921
C 3.2643 8.6143 -3.7700
C 4.1758 9.5159 -3.2130
C 4.1714 10.9242 -3.5799
C 5.5200 11.4251 -3.6567
C 6.4108 10.3056 -3.3297
C 5.5664 9.1567 -3.1029
C 5.9874 7.8841 -3.5447
C 5.0680 6.9345 -4.1406
C 5.7542 6.2391 -5.2050
C 5.0792 5.9749 -6.3976
C 3.6836 6.3762 -6.5319
C 3.4984 6.7403 -7.9098
C 4.7368 6.6178 -8.6158
C 5.7438 6.1071 -7.6948
C 7.0120 6.6285 -7.6991
C 5.6370 -3.4180 1.8214
C 4.6230 -4.3570 2.3092
C 4.7697 -5.5841 1.5298
C 5.8794 -5.3857 0.5789
C 6.4237 -4.0918 0.8172
C 6.8286 -3.3573 -0.3142
C 6.7980 -3.9654 -1.6992
C 6.3483 -5.2606 -1.8525
C 5.8504 -5.9639 -0.6769
C 4.6596 -6.6715 -1.0568
C 3.6180 -6.8720 -0.1979
C 3.6671 -6.2807 1.1567
C 2.3403 -5.8024 1.4754
C 2.2110 -4.6133 2.1855
C 3.3578 -3.8442 2.6090
C 3.0383 -2.4436 2.4685
C 1.6872 -2.3443 1.9812
C 1.1460 -3.6977 1.7720
C 0.3016 -4.0051 0.7194
C 0.5199 -5.2453 -0.0248
C 1.5073 -6.1088 0.3495
C 2.2892 -6.7892 -0.6467
C 2.0645 -6.5167 -1.9916
C 3.1574 -6.3753 -2.9104
C 4.4551 -6.3649 -2.4785
C 5.4668 -5.5017 -2.9507
C 5.1065 -4.5361 -3.8440
C 5.6183 -3.1499 -3.7050
C 6.4405 -2.8820 -2.5973
C 6.2774 -1.6670 -1.8436
C 5.2810 -0.7477 -2.2078
C 4.4521 -1.0151 -3.3595
C 4.5953 -2.2081 -4.0691
C 3.4030 -2.9484 -4.4311
C 3.7038 -4.3789 -4.2979
C 2.7924 -5.2703 -3.8028
C 1.4557 -4.8034 -3.5245
C 1.0258 -5.6087 -2.4115
C 0.2346 -4.9787 -1.4371
C -0.1430 -3.5371 -1.5647
C -0.0132 -2.9719 -0.2284
C 0.4630 -1.6796 -0.0119
C 1.3535 -1.3425 1.0596
C 2.3428 -0.4350 0.5945
C 2.1129 -0.1025 -0.7822
C 0.9392 -0.9011 -1.2016
C 0.8950 -1.4916 -2.4455
C 0.3496 -2.7937 -2.6272
C 1.1022 -3.4750 -3.6981
C 2.0999 -2.5051 -4.1917
C 1.9772 -1.2737 -3.3676
C 3.0878 -0.5586 -2.9932
C 3.1419 0.0147 -1.6712
C 4.5217 -0.1414 -1.1442
C 4.7755 -0.3931 0.1865
C 3.6480 -0.5713 1.0602
C 4.0128 -1.5818 2.0207
C 5.3422 -2.0507 1.7081
C 5.8307 -1.2889 0.5744
C 6.5297 -1.9199 -0.4222
